#p CBS-4O geom=modela test

Gaussian Test Job 335 (Part 1):
CH2 3-B1 CBS-4O

0,2
n 2 -h
c 1 o

--Link1--
#p CBS-4M geom=modela test

Gaussian Test Job 335 (Part 2):
CH2 3-B1 CBS-4M

0,2
n 2 -h
c 1 o

--Link1--
#p CBS-LQ geom=modela test

Gaussian Test Job 335 (Part 3):
CH2 3-B1 CBS-q

0,2
n 2 -h
c 1 o

--Link1--
#p CBS-Q geom=modela test

Gaussian Test Job 335 (Part 4):
CH2 3-B1 CBS-Q

0,2
n 2 -h
c 1 o

--Link1--
#p CBS-QB3O geom=modela test

Gaussian Test Job 335 (Part 5):
CH2 3-B1 CBS-QO

0,2
n 2 -h
c 1 o

--Link1--
#p CBS-QB3 geom=modela test

Gaussian Test Job 335 (Part 6):
CH2 3-B1 CBS-QB3

0,2
n 2 -h
c 1 o

--Link1--
#p G1 geom=modela test

Gaussian Test Job 335 (Part 7):
CH2 3-B1 G1

0,2
n 2 -h
c 1 o

--Link1--
#p G2MP2 geom=modela test

Gaussian Test Job 335 (Part 8):
CH2 3-B1 G2

0,2
n 2 -h
c 1 o

--Link1--
#p G2 geom=modela test

Gaussian Test Job 335 (Part 9):
CH2 3-B1 G2

0,2
n 2 -h
c 1 o

--Link1--
#p G3 geom=modela test

Gaussian Test Job 335 (Part 10):
CH2 3-B1 G2

0,2
n 2 -h
c 1 o

--Link1--
#p G3MP2 geom=modela test

Gaussian Test Job 335 (Part 11):
CH2 3-B1 G2

0,2
n 2 -h
c 1 o

--Link1--
#p G3B3 geom=modela test

Gaussian Test Job 335 (Part 12):
CH2 3-B1 G2

0,2
n 2 -h
c 1 o

--Link1--
#p G3MP2B3 geom=modela test

Gaussian Test Job 335 (Part 13):
CH2 3-B1 G2

0,2
n 2 -h
c 1 o

