#p opt freq dreiding test

Gaussian Test Job 350:
D3d test case 

0,3
C,0.6976505057,1.2083665551,0.
C,-1.3953013867,-0.0000002166,0.
C,1.3953013867,0.0000002166,0.
C,-0.6976508809,1.2083663385,0.
C,-0.6976505057,-1.2083665551,0.
C,0.6976508809,-1.2083663385,0.
H,-1.8450016844,1.0652118372,0.8944133178
H,0.0000003307,-2.1304242473,0.8944133178
H,-1.8450013537,-1.0652124101,-0.8944133178
H,1.8450016844,-1.0652118372,-0.8944133178
H,-0.0000003307,2.1304242473,-0.8944133178
H,1.8450013537,1.0652124101,0.8944133178
F,-2.2564748776,1.3027759109,-1.3815012097
F,0.0000004045,-2.6055525224,-1.3815012097
F,-2.2564744731,-1.3027766115,1.3815012097
F,2.2564748776,-1.3027759109,1.3815012097
F,-0.0000004045,2.6055525224,1.3815012097
F,2.2564744731,1.3027766115,-1.3815012097



