#p ept/6-31G* test iop(9/11=30100)

Gaussian Test Job 625 (Part 1):
F2O

 0 1
 O,0,-0.4599201082,0.,-0.3529091113
 F,0,-0.4389397319,0.,0.9952768028
 F,0,0.8477576059,0.,-0.681579815

 8 16 8 15 


--Link1--
#p ept/6-31G* test iop(9/11=30100)

Gaussian Test Job 625 (Part 2):
F2O

 0 1
 O,0,-0.4599201082,0.,-0.3529091113
 F,0,-0.4389397319,0.,0.9952768028
 F,0,0.8477576059,0.,-0.681579815

 8 16 8 15 


--Link1--
#p ept/6-31G* test iop(9/11=100)

Gaussian Test Job 625 (Part 3):
F2O

 0 1
 O,0,-0.4599201082,0.,-0.3529091113
 F,0,-0.4389397319,0.,0.9952768028
 F,0,0.8477576059,0.,-0.681579815

 8 10 8 10 


--Link1--
#p rovgf/6-31G* iop(9/11=100) test

Gaussian Test Job 625 (Part 4):
F2O

 0 1
 O,0,-0.4599201082,0.,-0.3529091113
 F,0,-0.4389397319,0.,0.9952768028
 F,0,0.8477576059,0.,-0.681579815

 8 16 


