%mem=16mw
#p ub3lyp/6-31g(df,pd) 5d 7f nmr iop(10/6=1) int=ultrafine cphf=ultrafine

Gaussian Test Job 592:
H2CO triplet susceptability

0,3
          6        0.000000    0.000000   -0.542500
          8        0.000000    0.000000    0.677500
          1        0.000000    0.935307   -1.082500
          1        0.000000   -0.935307   -1.082500

